/home/antonio/OpenFAST_PyProject/modules/servodyn/src/forpy_mod.o `python3-config --ldflags`


#INSTALLAZIONE CON FORPY in /home/antonio/OpenFAST_PyProject/build/modules/servodyn/CMakeFiles/servodynlib.dir/build.make
#Aggiungere a tutti i BladedInterface.o .i .s
#INSTALLAZIONE CON FORPY in /home/antonio/OpenFAST_PyProject/build/modules/servodyn/CMakeFiles/servodyndriver.dir/build.make
#Aggiungere a tutti i ServoDyn_Driver.o .i .s


#CMakeLists in ServoDyn aggiungi il file forpy_mod alle sources

#to compile servodyn it's the last step so we can try to install it manually!!!!!!!! and the continue compiling module by module!!! AFTER HAVING GIVEN THE CMAKE COMMAND!!!
 

%%%%%%%%%%%%%%%%%   ECCOLIIIIIIIIIIIIIIIIIII %%%%%%%%%%%%%%%%%%   PRESI DAI FILE link.txt che non compilavano!!!!!!!!

gfortran    -fpic -ffree-line-length-none -cpp -fdefault-real-8 -O3 -DNDEBUG -O3 /home/antonio/OpenFAST/build/modules/servodyn/CMakeFiles/servodyn_driver.dir/src/ServoDyn_Driver.f90.o  -o modules/servodyn/servodyn_driver /home/antonio/OpenFAST/modules/servodyn/src/forpy_mod.o `python3-config --ldflags` -I/home/antonio/OpenFAST/build/ftnmods -lservodynlib -lnwtclibs -ldl /usr/lib/x86_64-linux-gnu/liblapack.so /usr/lib/x86_64-linux-gnu/libblas.so -ldl 

gfortran    -fpic -ffree-line-length-none -cpp -fdefault-real-8 -O3 -DNDEBUG -O3 /home/antonio/OpenFAST/build/glue-codes/openfast/CMakeFiles/openfast.dir/src/FAST_Prog.f90.o  -o glue-codes/openfast/openfast /home/antonio/OpenFAST/modules/servodyn/src/forpy_mod.o `python3-config --ldflags` -I/home/antonio/OpenFAST/build/ftnmods -lopenfast_postlib -lfoamfastlib -lscfastlib -lopenfast_prelib -lopenfoamtypeslib -laerodynlib -laerodyn14lib -lifwlib -lelastodynlib -lservodynlib -lbeamdynlib -lsubdynlib -lhydrodynlib -lorcaflexlib -lextptfm_mckflib -lfeamlib -lmoordynlib -licedynlib -licefloelib -lmaplib -lmapcpplib -lsctypeslib -lnwtclibs /usr/lib/x86_64-linux-gnu/liblapack.so /usr/lib/x86_64-linux-gnu/libblas.so -ldl -lversioninfolib -lstdc++ 

c++  -fpic -O3 -DNDEBUG  -rdynamic -pthread /home/antonio/OpenFAST/build/glue-codes/openfast-cpp/CMakeFiles/openfastcpp.dir/src/FAST_Prog.cpp.o  -o glue-codes/openfast-cpp/openfastcpp -Wl,-rpath,/usr/lib/x86_64-linux-gnu/openmpi/lib:/usr/lib/x86_64-linux-gnu/hdf5/serial: -lopenfastcpplib -lopenfastlib /usr/lib/x86_64-linux-gnu/openmpi/lib/libmpi_cxx.so /usr/lib/x86_64-linux-gnu/openmpi/lib/libmpi.so -lyaml-cpp /usr/lib/x86_64-linux-gnu/hdf5/serial/libhdf5.so -lpthread -lsz -lz -ldl -lm /usr/lib/x86_64-linux-gnu/hdf5/serial/libhdf5_hl.so -lz -lxml2 -ldl -lopenfast_postlib -lversioninfolib -lscfastlib -lfoamfastlib -lopenfast_prelib -laerodynlib -laerodyn14lib -lifwlib -lelastodynlib -lservodynlib -lbeamdynlib -lsubdynlib -lhydrodynlib -lorcaflexlib -lextptfm_mckflib -lsctypeslib -lfeamlib -lmoordynlib -licedynlib -licefloelib -lmaplib -lmapcpplib -lopenfoamtypeslib -lnwtclibs -llapack -lblas -ldl -lm /usr/lib/x86_64-linux-gnu/hdf5/serial/libhdf5_hl.so -lxml2 -ldl -lgfortran -lquadmath /home/antonio/OpenFAST/modules/servodyn/src/forpy_mod.o `python3-config --ldflags`

gfortran    -fpic  -ffree-line-length-none -cpp -fdefault-real-8 -O3 -DNDEBUG -O3 /home/antonio/OpenFAST/build/modules/inflowwind/CMakeFiles/inflowwind_driver.dir/src/InflowWind_Driver_Types.f90.o /home/antonio/OpenFAST/build/modules/inflowwind/CMakeFiles/inflowwind_driver.dir/src/InflowWind_Driver_Subs.f90.o /home/antonio/OpenFAST/build/modules/inflowwind/CMakeFiles/inflowwind_driver.dir/src/InflowWind_Driver.f90.o  -o /home/antonio/OpenFAST/build/modules/inflowwind/inflowwind_driver -lifwlib -ldl -lnwtclibs /usr/lib/x86_64-linux-gnu/liblapack.so /usr/lib/x86_64-linux-gnu/libblas.so -ldl /home/antonio/OpenFAST/modules/servodyn/src/forpy_mod.o `python3-config --ldflags`

cmake .. -DBUILD_OPENFAST_CPP_API:BOOL=ON -DFPE_TRAP_ENABLED:BOOL=ON
make
make install

sudo cp /home/antonio/OpenFAST/install/bin/* /usr/local/bin
sudo cp -r /home/antonio/OpenFAST/install/include/* /usr/local/include
sudo cp /home/antonio/OpenFAST/build/ftnmods/* /usr/local/include/openfast
sudo cp -r /home/antonio/OpenFAST/install/lib/* /usr/local/lib

sudo cp /home/antonio/OpenFAST/install/bin/* /usr/local/bin; sudo cp -r /home/antonio/OpenFAST/install/include/* /usr/local/include; sudo cp /home/antonio/OpenFAST/build/ftnmods/* /usr/local/include/openfast; sudo cp -r /home/antonio/OpenFAST/install/lib/* /usr/local/lib

MODIFICA MAKEFILE in OpenFAST/build MENTRE INSTALLI mano a mano che vai avanti!!!!!!!
CAMBIALI SOLO DOPO CHE SI BLOCCA L'INSTALLAZIONE

DOVRAI AGGIUNGERE TYPES SERVODYN PER OGGETTI FORPY_MOD---> AGGIUNGI UN SERVODYN_TYPES GIA CREATO in OpenFAST/modules/servodyn E MODIFICA SrvD_Parameters aggiungendo ierror, paths, DISCON con relativi types; poi eliminate generate_f90_types dal cmake in servodyn ed eseguire installazione normale






























